<?xml version="1.0" encoding="UTF-8"?>

<routes xmlns:xsi="http://www.w3.org/2001/XMLSchema-instance" xsi:noNamespaceSchemaLocation="http://sumo.dlr.de/xsd/routes_file.xsd">

    <!-- Connected and Automated Vehicles with CACC -->
    <vType id="ego" vClass="passenger" length="5.00" maxSpeed="20.0" color="10,191,255" carFollowModel="CACC" laneChangeModel="SL2015" lcCooperative="1.0" lcSpeedGain="100" lcStrategic="100" lcAssertive="10" tau="1.0" minGap="1.0" accel="5" decel="5"/>

    <!-- Leader vehicles using IDM model -->
    <vType id="leader_0" vClass="taxi" length="5.00" maxSpeed="20.00" color="244,193,92" carFollowModel="IDM" emergencyDecel="9.0" tau="1.0" minGap="1.0" accel="4.0" decel="6.0"/>
    <vType id="leader_1" vClass="taxi" length="5.00" maxSpeed="20.00" color="244,193,92" carFollowModel="IDM" emergencyDecel="9.0" tau="1.5" minGap="1.5" accel="4.0" decel="6.0"/>
    <vType id="leader_2" vClass="taxi" length="5.00" maxSpeed="20.00" color="244,193,92" carFollowModel="IDM" emergencyDecel="9.0" tau="2.5" minGap="2.0" accel="4.0" decel="6.0"/>

    <!-- Follower vehicles using IDM model -->
    <vType id="follower_0" vClass="taxi" length="5.00" maxSpeed="20.00" color="244,193,92" carFollowModel="IDM" emergencyDecel="9.0" tau="1.0" minGap="1.0" accel="4.0" decel="6.0"/>
    <vType id="follower_1" vClass="taxi" length="5.00" maxSpeed="20.00" color="244,193,92" carFollowModel="IDM" emergencyDecel="9.0" tau="1.5" minGap="1.5" accel="4.0" decel="6.0"/>
    <vType id="follower_2" vClass="taxi" length="5.00" maxSpeed="20.00" color="244,193,92" carFollowModel="IDM" emergencyDecel="9.0" tau="2.5" minGap="2.0" accel="4.0" decel="6.0"/>

    <!-- Aggressive human-driven vehicles -->
    <vType id="HDV_0_0" vClass="taxi" length="5.00" maxSpeed="20.00" color="112,100,78" carFollowModel="IDM" emergencyDecel="9.0" tau="1.0" minGap="0.8" accel="4.0" decel="6.0"/>
    <vType id="HDV_0_1" vClass="taxi" length="5.00" maxSpeed="20.00" color="112,100,78" carFollowModel="IDM" emergencyDecel="9.0" tau="2.0" minGap="0.8" accel="4.0" decel="6.0"/>
    <vType id="HDV_0_2" vClass="taxi" length="5.00" maxSpeed="20.00" color="112,100,78" carFollowModel="IDM" emergencyDecel="9.0" tau="3.0" minGap="0.8" accel="4.0" decel="6.0"/>

    <!-- Normal human-driven vehicles -->
    <vType id="HDV_1_0" vClass="taxi" length="5.00" maxSpeed="20.00" color="112,100,78" carFollowModel="IDM" emergencyDecel="9.0" tau="1.5" minGap="1.5" accel="2.5" decel="4.5"/>
    <vType id="HDV_1_1" vClass="taxi" length="5.00" maxSpeed="20.00" color="112,100,78" carFollowModel="IDM" emergencyDecel="9.0" tau="2.0" minGap="1.5" accel="2.5" decel="4.5"/>
    <vType id="HDV_1_2" vClass="taxi" length="5.00" maxSpeed="20.00" color="112,100,78" carFollowModel="IDM" emergencyDecel="9.0" tau="3.0" minGap="1.5" accel="2.5" decel="4.5"/>

    <!-- Cautious human-driven vehicles -->
    <vType id="HDV_2_0" vClass="taxi" length="5.00" maxSpeed="20.00" color="112,100,78" carFollowModel="IDM" emergencyDecel="9.0" tau="2.5" minGap="2.0" accel="1.5" decel="2.5"/>
    <vType id="HDV_2_1" vClass="taxi" length="5.00" maxSpeed="20.00" color="112,100,78" carFollowModel="IDM" emergencyDecel="9.0" tau="3.0" minGap="2.0" accel="1.5" decel="2.5"/>
    <vType id="HDV_2_2" vClass="taxi" length="5.00" maxSpeed="20.00" color="112,100,78" carFollowModel="IDM" emergencyDecel="9.0" tau="4.0" minGap="2.0" accel="1.5" decel="2.5"/>
    <route id="route_0" edges="E0 E1 E2"/>
    <route id="route_1" edges="E1 E2"/>
</routes>