<?xml version="1.0" encoding="UTF-8"?>

<!-- generated on 2025-08-08 09:21:21 by Eclipse SUMO netedit Version 1.21.0
<neteditConfiguration xmlns:xsi="http://www.w3.org/2001/XMLSchema-instance" xsi:noNamespaceSchemaLocation="http://sumo.dlr.de/xsd/neteditConfiguration.xsd">

    <input>
        <sumo-net-file value="/home/lzx/00_Projects/00_platoon_MARL/HARL/harl/envs/a_multi_lane/env_utils/SUMO_files/veh.net.xml"/>
    </input>

    <output>
        <output-file value="/home/lzx/00_Projects/00_platoon_MARL/HARL/harl/envs/a_multi_lane/env_utils/SUMO_files/veh.net.xml"/>
    </output>

    <processing>
        <geometry.min-radius.fix.railways value="false"/>
        <geometry.max-grade.fix value="false"/>
        <offset.disable-normalization value="true"/>
        <lefthand value="0"/>
    </processing>

    <junctions>
        <no-turnarounds value="true"/>
        <junctions.corner-detail value="5"/>
        <junctions.limit-turn-speed value="5.50"/>
        <rectangular-lane-cut value="0"/>
    </junctions>

    <pedestrian>
        <walkingareas value="0"/>
    </pedestrian>

</neteditConfiguration>
-->

<net version="1.20" junctionCornerDetail="5" limitTurnSpeed="5.50" xmlns:xsi="http://www.w3.org/2001/XMLSchema-instance" xsi:noNamespaceSchemaLocation="http://sumo.dlr.de/xsd/net_file.xsd">

    <location netOffset="0.00,0.00" convBoundary="-2000.00,0.00,3000.00,0.00" origBoundary="-10000000000.00,-10000000000.00,10000000000.00,10000000000.00" projParameter="!"/>

    <edge id=":J1_0" function="internal">
        <lane id=":J1_0_0" index="0" speed="20.00" length="0.10" shape="0.00,-3.20 0.00,-3.20"/>
        <lane id=":J1_0_1" index="1" speed="20.00" length="0.10" shape="0.00,0.00 0.00,0.00"/>
        <lane id=":J1_0_2" index="2" speed="20.00" length="0.10" shape="0.00,3.20 0.00,3.20"/>
    </edge>
    <edge id=":J2_0" function="internal">
        <lane id=":J2_0_0" index="0" speed="20.00" length="0.10" shape="1000.00,-3.20 1000.00,-3.20"/>
        <lane id=":J2_0_1" index="1" speed="20.00" length="0.10" shape="1000.00,0.00 1000.00,0.00"/>
        <lane id=":J2_0_2" index="2" speed="20.00" length="0.10" shape="1000.00,3.20 1000.00,3.20"/>
    </edge>

    <edge id="E0" from="J0" to="J1" priority="-1" spreadType="center">
        <lane id="E0_0" index="0" speed="20.00" length="2000.00" shape="-2000.00,-3.20 0.00,-3.20"/>
        <lane id="E0_1" index="1" speed="20.00" length="2000.00" shape="-2000.00,0.00 0.00,0.00"/>
        <lane id="E0_2" index="2" speed="20.00" length="2000.00" shape="-2000.00,3.20 0.00,3.20"/>
    </edge>
    <edge id="E1" from="J1" to="J2" priority="-1" spreadType="center" length="1000.00">
        <lane id="E1_0" index="0" speed="20.00" length="1000.00" shape="0.00,-3.20 1000.00,-3.20"/>
        <lane id="E1_1" index="1" speed="20.00" length="1000.00" shape="0.00,0.00 1000.00,0.00"/>
        <lane id="E1_2" index="2" speed="20.00" length="1000.00" shape="0.00,3.20 1000.00,3.20"/>
    </edge>
    <edge id="E2" from="J2" to="J3" priority="-1" spreadType="center">
        <lane id="E2_0" index="0" speed="20.00" length="2000.00" shape="1000.00,-3.20 3000.00,-3.20"/>
        <lane id="E2_1" index="1" speed="20.00" length="2000.00" shape="1000.00,0.00 3000.00,0.00"/>
        <lane id="E2_2" index="2" speed="20.00" length="2000.00" shape="1000.00,3.20 3000.00,3.20"/>
    </edge>

    <junction id="J0" type="dead_end" x="-2000.00" y="0.00" incLanes="" intLanes="" shape="-2000.00,4.80 -2000.00,-4.80"/>
    <junction id="J1" type="priority" x="0.00" y="0.00" incLanes="E0_0 E0_1 E0_2" intLanes=":J1_0_0 :J1_0_1 :J1_0_2" shape="0.00,4.80 0.00,-4.80 0.00,4.80">
        <request index="0" response="000" foes="000" cont="0"/>
        <request index="1" response="000" foes="000" cont="0"/>
        <request index="2" response="000" foes="000" cont="0"/>
    </junction>
    <junction id="J2" type="priority" x="1000.00" y="0.00" incLanes="E1_0 E1_1 E1_2" intLanes=":J2_0_0 :J2_0_1 :J2_0_2" shape="1000.00,4.80 1000.00,-4.80 1000.00,4.80">
        <request index="0" response="000" foes="000" cont="0"/>
        <request index="1" response="000" foes="000" cont="0"/>
        <request index="2" response="000" foes="000" cont="0"/>
    </junction>
    <junction id="J3" type="dead_end" x="3000.00" y="0.00" incLanes="E2_0 E2_1 E2_2" intLanes="" shape="3000.00,-4.80 3000.00,4.80"/>

    <connection from="E0" to="E1" fromLane="0" toLane="0" via=":J1_0_0" dir="s" state="M"/>
    <connection from="E0" to="E1" fromLane="1" toLane="1" via=":J1_0_1" dir="s" state="M"/>
    <connection from="E0" to="E1" fromLane="2" toLane="2" via=":J1_0_2" dir="s" state="M"/>
    <connection from="E1" to="E2" fromLane="0" toLane="0" via=":J2_0_0" dir="s" state="M"/>
    <connection from="E1" to="E2" fromLane="1" toLane="1" via=":J2_0_1" dir="s" state="M"/>
    <connection from="E1" to="E2" fromLane="2" toLane="2" via=":J2_0_2" dir="s" state="M"/>

    <connection from=":J1_0" to="E1" fromLane="0" toLane="0" dir="s" state="M"/>
    <connection from=":J1_0" to="E1" fromLane="1" toLane="1" dir="s" state="M"/>
    <connection from=":J1_0" to="E1" fromLane="2" toLane="2" dir="s" state="M"/>
    <connection from=":J2_0" to="E2" fromLane="0" toLane="0" dir="s" state="M"/>
    <connection from=":J2_0" to="E2" fromLane="1" toLane="1" dir="s" state="M"/>
    <connection from=":J2_0" to="E2" fromLane="2" toLane="2" dir="s" state="M"/>

</net>
